 ****** HSPICE -- Q-2020.03 linux64 (Mar  8 2020) ******                        
  Copyright (c) 1986 - 2025 by Synopsys, Inc. All Rights Reserved.              
  This software and the associated documentation are proprietary
  to Synopsys, Inc. This software may only be used in accordance
  with the terms and conditions of a written license agreement with
  Synopsys, Inc. All other use, reproduction, or distribution of
  this software is strictly prohibited.
  Input File: SRAM_read_latency_differential_sa_8T.sp                           
  Command line options: /package/eda/synopsys/hspice-Q-2020.03/hspice/linux64/hspice -i SRAM_read_latency_differential_sa_8T.sp -o Outputs/
  Start time: Sat Nov 29 22:16:16 2025
 lic:  
 lic: FLEXlm: SDK_12.6 
 lic: USER:   hjaigane             HOSTNAME: ececomp2.ecn.purdue.edu 
 lic: HOSTID: "ec2a720a9b5a"       PID:      1261804 
 lic: Using FLEXlm license file: 
 lic: 1718@marina.ecn.purdue.edu 
 lic: Checkout 1 hspice 
 lic: License/Maintenance for hspice will expire on 08-sep-2026/2025.06 
 lic: 1(in_use)/50(total) FLOATING license(s) on SERVER 1718@marina.ecn.purdue.edu 
 lic:   
  
  ******  Machine Information  ***********************************
  CPU:
  model name	: AMD EPYC 7513 32-Core Processor
  cpu MHz	: 2595.162
  
  OS:
  Linux version 4.18.0-553.78.1.el8_10.x86_64 (mockbuild@host-100-100-224-106) (gcc version 8.5.0 20210514 (Red Hat 8.5.0-28.0.1) (GCC)) #1 SMP Tue Oct 7 02:24:16 PDT 2025

  ******  Loading Files  *****************************************
  Loading 'SRAM_read_latency_differential_sa_8T.sp '
  Loading '/package/eda/synopsys/hspice-Q-2020.03/hspice/hspice.ini '
  Loading './FEFET_LK_Model_ICDL_PSU/MOSFET_LIB.lib '
  Loading './FEFET_LK_Model_ICDL_PSU/./MOSFET_MODELS/22fet_hp.pm '
  Loading './differential_sa.sp '
  **info** (SRAM_read_latency_differential_sa_8T.sp:84) DC voltage reset to initial transient source value in source 0:vbl_pch. new dc=0.0000D+00
  **warning** (SRAM_read_latency_differential_sa_8T.sp:30) Both nodes of element vgnd are connected together; Line ignored.
  **warning** (pmos:mpfet (./FEFET_LK_Model_ICDL_PSU/MOSFET_LIB.lib:118)) Warning:  Acde = 0.259654 may be too small in BSIM4 model with w=3.6e-07 l=2.2e-08.
  
      
 **info** set option symb=1 internally to help for convergence.
 ******  Options set in the netlist  ****************************
 co      = 131       dccap   = 1         ingold  = 1         
 lis_new = 1         measform= 3         method  = trap      
 post    = binary    runlvl  = 6         
 search  = /package/eda/synopsys/hspice-Q-2020.03/hspice/parts/behave
  
  
  ******  Summary of possible problems in netlist  ***************
  Negative resistor :      0
  Negative capacitor:      0
  Negative inductor :      0
  Unconnected node  :      0
  Dangling terminal :      0
  Source loop       :      0
  
  ******  Circuit Statistics  ************************************
  Capacitors(total)   :       4
     Coupling Capacitors :       0
  Voltage Sources     :       9
  MOSFETs             :      34
  Total # of Nodes    :     161
  Total # of Elements :      47


  
  ******  Analysis Details  **************************************
  dcop: begin dcop, cpu clock= 3.81E-01                                         
                                                  
 **info** dc convergence successful at Newton-Raphson method 
 ****** HSPICE -- Q-2020.03 linux64 (Mar  8 2020) ******                        
 ******  
 *.lib './fefet_lk_model_icdl_psu/mosfet_lib.lib' norm_2dfet

 ****** transient analysis tnom=  25.000 temp=  25.000 ******
  dcop: end dcop, cpu clock= 3.87E-01 peak memory=     419 mb tot_iter=      21 
                                                  
  Opening 'Outputs/SRAM_read_latency_differential_sa_8T.tr0' for output.
  Waveform Format: POST=Binary, POST_VERSION=2013
 
  Transient Beginning
  100.00% Tran Time= 3.00000e-08s Estimated Time Left: 0:00:00        
  Transient End
 ******
 *.lib './fefet_lk_model_icdl_psu/mosfet_lib.lib' norm_2dfet

 ****** transient analysis tnom=  25.000 temp=  25.000 ******
 
  ******  Measured values for the netlist  ***********************
 twl_init= 9.0910e-09
 twl_fin= 9.4236e-09
 twl= 3.3258e-10
 tbl_init= 9.4125e-09
 tbl_fin= 1.1410e-08
 tbl= 1.9978e-09
 tsa_init= 9.4691e-09
 tsa_fin= 9.5219e-09
 tsa= 5.2814e-11
 wl2q_delay= 4.3091e-10
 bl_voltage=   0.7473
 blb_voltage=   0.8161
 delta_v= 6.8839e-02
 e_read= 7.8078e-14  from= 8.0000e-09     to= 1.0000e-08

          ***** job concluded
 ******  
 *.lib './fefet_lk_model_icdl_psu/mosfet_lib.lib' norm_2dfet

 ****** job statistics summary tnom=  25.000 temp=  25.000 ******

  ******  HSPICE Threads Information  ******

  Command Line Threads Count :     1
  Available CPU Count        :   128
  Actual Threads Count       :     1


  ****** Statistics of Ignored Elements ******
  Voltage Sources :       1


  ******  Runtime Statistics (seconds)  ******

  analysis           time    # points   tot. iter  conv.iter
  op point           0.01           1          21
  transient          0.04       30001        1194         366 rev=        52
  readin             0.10
  errchk             0.07
  setup              0.01
  output             0.00


           peak memory used        419.65 megabytes
           total cpu time            0.24 seconds
           total elapsed time        0.43 seconds
           job started at     22:16:16 11/29/2025
           job ended   at     22:16:16 11/29/2025
           job total runtime         0.43 seconds


 lic: Release hspice token(s) 
 lic: total license checkout elapse time:        0.05(s)
