 ****** HSPICE -- Q-2020.03 linux64 (Mar  8 2020) ******                        
  Copyright (c) 1986 - 2025 by Synopsys, Inc. All Rights Reserved.              
  This software and the associated documentation are proprietary
  to Synopsys, Inc. This software may only be used in accordance
  with the terms and conditions of a written license agreement with
  Synopsys, Inc. All other use, reproduction, or distribution of
  this software is strictly prohibited.
  Input File: SRAM_read_latency_Single_Ended_4T.sp                              
  Command line options: /package/eda/synopsys/hspice-Q-2020.03/hspice/linux64/hspice -i SRAM_read_latency_Single_Ended_4T.sp -o Outputs/
  Start time: Sun Nov 30 13:17:01 2025
 lic:  
 lic: FLEXlm: SDK_12.6 
 lic: USER:   hjaigane             HOSTNAME: ececomp2.ecn.purdue.edu 
 lic: HOSTID: "ec2a720a9b5a"       PID:      110999 
 lic: Using FLEXlm license file: 
 lic: 1718@marina.ecn.purdue.edu 
 lic: Checkout 1 hspice 
 lic: License/Maintenance for hspice will expire on 08-sep-2026/2025.06 
 lic: 1(in_use)/50(total) FLOATING license(s) on SERVER 1718@marina.ecn.purdue.edu 
 lic:   
  
  ******  Machine Information  ***********************************
  CPU:
  model name	: AMD EPYC 7513 32-Core Processor
  cpu MHz	: 2595.162
  
  OS:
  Linux version 4.18.0-553.78.1.el8_10.x86_64 (mockbuild@host-100-100-224-106) (gcc version 8.5.0 20210514 (Red Hat 8.5.0-28.0.1) (GCC)) #1 SMP Tue Oct 7 02:24:16 PDT 2025

  ******  Loading Files  *****************************************
  Loading 'SRAM_read_latency_Single_Ended_4T.sp '
  Loading '/package/eda/synopsys/hspice-Q-2020.03/hspice/hspice.ini '
  Loading './FEFET_LK_Model_ICDL_PSU/MOSFET_LIB.lib '
  Loading './FEFET_LK_Model_ICDL_PSU/./MOSFET_MODELS/22fet_hp.pm '
  **warning** (SRAM_read_latency_Single_Ended_4T.sp:183) Undefined parameter or function definition "vdd_supply" for "twl_rgt_init". Please enter a defined name. .measure "twl_rgt_init" is ignored.
  **error** (SRAM_read_latency_Single_Ended_4T.sp:24) Undefined parameter or function definition "vdd_supply" for vvdd. Please enter a defined name.
  
  ******  Summary of possible problems in netlist  ***************
  Negative resistor :      0
  Negative capacitor:      0
  Negative inductor :      0
  Unconnected node  :      0
  Dangling terminal :      0
  Source loop       :      0
  
  ******  Circuit Statistics  ************************************
  Capacitors(total)   :      11
     Coupling Capacitors :       0
  Voltage Sources     :      16
  Total # of Nodes    :       0
  Total # of Elements :      27


  

          ***** job aborted
 ****** HSPICE -- Q-2020.03 linux64 (Mar  8 2020) ******                        
 ******  
 *.lib './fefet_lk_model_icdl_psu/mosfet_lib.lib' norm_2dfet

 ****** job statistics summary tnom=  25.000 temp=  25.000 ******

  ******  HSPICE Threads Information  ******

  Command Line Threads Count :     1
  Available CPU Count        :   128
  Actual Threads Count       :     1



  ******  Runtime Statistics (seconds)  ******

  analysis           time    # points   tot. iter  conv.iter
  op point           0.00           1           0
  readin             0.02
  errchk             0.00
  setup              0.00
  output             0.00


           peak memory used        418.63 megabytes
           total cpu time            0.02 seconds
           total elapsed time        0.06 seconds
           job started at     13:17:01 11/30/2025
           job ended   at     13:17:01 11/30/2025
           job total runtime         0.06 seconds


 lic: Release hspice token(s) 
 lic: total license checkout elapse time:        0.03(s)
